data_MAPbBr_5.92-CONTCAR

_audit_creation_method RASPA-1.0
_audit_creation_date 2018-1-9
_audit_author_name 'Jose Manuel Vicent-Luna'

_cell_length_a    5.9200
_cell_length_b    5.9200
_cell_length_c    5.9200
_cell_angle_alpha 90.0000
_cell_angle_beta  90.0000
_cell_angle_gamma 90.0000

_symmetry_cell_setting          triclinic
_symmetry_space_group_name_Hall 'P 1'
_symmetry_space_group_name_H-M  'P 1'
_symmetry_Int_Tables_number     1

_symmetry_equiv_pos_as_xyz 'x,y,z'

loop_
_atom_site_label
_atom_site_type_symbol
_atom_site_fract_x
_atom_site_fract_y
_atom_site_fract_z
_atom_site_charge
C1        C1       0.91493   0.99993   0.98008     0.0000
N1        N1       0.15539   0.99976   0.04842     0.0000
H1       H       0.90446   0.99972   0.79469     0.0000
H1       H       0.83318   0.15236   0.04775     0.0000
H1       H       0.83289   0.84777   0.04811     0.0000
H2       H       0.24059   0.14245   0.98902     0.0000
H2       H       0.24036   0.85691   0.98908     0.0000
H2       H       0.17785   0.99976   0.22351     0.0000
Pb       Pb      0.49790   0.50006   0.49839     0.0000
Br       Br      0.44677   0.49963   0.99246     0.0000
Br       Br      0.45218   0.00013   0.52624     0.0000
Br       Br      0.98674   0.50086   0.45938     0.0000
