data_MAPbBr_5.5-CONTCAR

_audit_creation_method RASPA-1.0
_audit_creation_date 2018-1-9
_audit_author_name 'Jose Manuel Vicent-Luna'

_cell_length_a    5.5000
_cell_length_b    5.5000
_cell_length_c    5.5000
_cell_angle_alpha 90.0000
_cell_angle_beta  90.0000
_cell_angle_gamma 90.0000

_symmetry_cell_setting          triclinic
_symmetry_space_group_name_Hall 'P 1'
_symmetry_space_group_name_H-M  'P 1'
_symmetry_Int_Tables_number     1

_symmetry_equiv_pos_as_xyz 'x,y,z'

loop_
_atom_site_label
_atom_site_type_symbol
_atom_site_fract_x
_atom_site_fract_y
_atom_site_fract_z
_atom_site_charge
C1        C1       0.90512   0.00044   0.94900     0.0000
N1        N1       0.13783   0.99951   0.07909     0.0000
H1       H       0.94213  -0.00011   0.75290     0.0000
H1       H       0.80267   0.16480  -0.00170     0.0000
H1       H       0.80130   0.83702  -0.00142     0.0000
H2       H       0.24134   0.15324   0.03611     0.0000
H2       H       0.24099   0.84586   0.03468     0.0000
H2       H       0.11955   0.99827   0.26678     0.0000
Pb       Pb      0.54903   0.49834   0.49663     0.0000
Br       Br      0.45399   0.49997   0.99226     0.0000
Br       Br      0.45120  -0.00079   0.56180     0.0000
Br       Br      0.03808   0.50279   0.43101     0.0000
