data_MAPbBr_5.85-CONTCAR

_audit_creation_method RASPA-1.0
_audit_creation_date 2018-1-9
_audit_author_name 'Jose Manuel Vicent-Luna'

_cell_length_a    5.8500
_cell_length_b    5.8500
_cell_length_c    5.8500
_cell_angle_alpha 90.0000
_cell_angle_beta  90.0000
_cell_angle_gamma 90.0000

_symmetry_cell_setting          triclinic
_symmetry_space_group_name_Hall 'P 1'
_symmetry_space_group_name_H-M  'P 1'
_symmetry_Int_Tables_number     1

_symmetry_equiv_pos_as_xyz 'x,y,z'

loop_
_atom_site_label
_atom_site_type_symbol
_atom_site_fract_x
_atom_site_fract_y
_atom_site_fract_z
_atom_site_charge
C1        C1       0.91249  -0.00009   0.97870     0.0000
N1        N1       0.15455   0.99972   0.05078     0.0000
H1       H       0.90447   0.99968   0.79104     0.0000
H1       H       0.82927   0.15435   0.04615     0.0000
H1       H       0.82899   0.84578   0.04648     0.0000
H2       H       0.24145   0.14398   0.99151     0.0000
H2       H       0.24123   0.85535   0.99155     0.0000
H2       H       0.17498   0.99970   0.22805     0.0000
Pb       Pb      0.49990   0.49993   0.49610     0.0000
Br       Br      0.45107   0.49959   0.99277     0.0000
Br       Br      0.45200  -0.00007   0.53315     0.0000
Br       Br      0.99281   0.50142   0.45087     0.0000
