data_MAPbI_6.35-CONTCAR

_audit_creation_method RASPA-1.0
_audit_creation_date 2018-1-9
_audit_author_name 'Jose Manuel Vicent-Luna'

_cell_length_a    6.3500
_cell_length_b    6.3500
_cell_length_c    6.3500
_cell_angle_alpha 90.0000
_cell_angle_beta  90.0000
_cell_angle_gamma 90.0000

_symmetry_cell_setting          triclinic
_symmetry_space_group_name_Hall 'P 1'
_symmetry_space_group_name_H-M  'P 1'
_symmetry_Int_Tables_number     1

_symmetry_equiv_pos_as_xyz 'x,y,z'

loop_
_atom_site_label
_atom_site_type_symbol
_atom_site_fract_x
_atom_site_fract_y
_atom_site_fract_z
_atom_site_charge
C1       C1      0.92719   0.00002   0.98656     0.7710
N1       N1      0.15270   0.99990   0.04618    -1.1000
H1       H       0.91439   0.99993   0.81390     0.0230
H1       H       0.85231   0.14208   0.05142     0.0230
H1       H       0.85210   0.85816   0.05159     0.0230
H2       H       0.23098   0.13293   0.98911     0.5400
H2       H       0.23082   0.86670   0.98922     0.5400
H2       H       0.17601   0.99995   0.20918     0.5400
Pb       Pb      0.48795   0.49996   0.49137     2.0300
I        I       0.43855   0.49994   0.98793    -1.1300
I        I       0.44682   0.99991   0.52590    -1.1300
I        I       0.97339   0.49986   0.45479    -1.1300
