data_MAPbI_6.31-CONTCAR

_audit_creation_method RASPA-1.0
_audit_creation_date 2018-1-9
_audit_author_name 'Jose Manuel Vicent-Luna'

_cell_length_a    6.3100
_cell_length_b    6.3100
_cell_length_c    6.3100
_cell_angle_alpha 90.0000
_cell_angle_beta  90.0000
_cell_angle_gamma 90.0000

_symmetry_cell_setting          triclinic
_symmetry_space_group_name_Hall 'P 1'
_symmetry_space_group_name_H-M  'P 1'
_symmetry_Int_Tables_number     1

_symmetry_equiv_pos_as_xyz 'x,y,z'

loop_
_atom_site_label
_atom_site_type_symbol
_atom_site_fract_x
_atom_site_fract_y
_atom_site_fract_z
_atom_site_charge
C1       C1      0.92622   0.00003   0.98632     0.7710
N1       N1      0.15307   0.99989   0.04624    -1.1000
H1       H       0.91342   0.99993   0.81253     0.0230
H1       H       0.85099   0.14305   0.05161     0.0230
H1       H       0.85078   0.85720   0.05178     0.0230
H2       H       0.23208   0.13375   0.98893     0.5400
H2       H       0.23191   0.86589   0.98905     0.5400
H2       H       0.17681   0.99995   0.21025     0.5400
Pb       Pb      0.48789   0.49992   0.49127     2.0300
I        I       0.43880   0.49994   0.98806    -1.1300
I        I       0.44714   0.99988   0.52641    -1.1300
I        I       0.97413   0.49991   0.45469    -1.1300
