data_MAPbBr_6.2-CONTCAR

_audit_creation_method RASPA-1.0
_audit_creation_date 2018-1-9
_audit_author_name 'Jose Manuel Vicent-Luna'

_cell_length_a    6.2000
_cell_length_b    6.2000
_cell_length_c    6.2000
_cell_angle_alpha 90.0000
_cell_angle_beta  90.0000
_cell_angle_gamma 90.0000

_symmetry_cell_setting          triclinic
_symmetry_space_group_name_Hall 'P 1'
_symmetry_space_group_name_H-M  'P 1'
_symmetry_Int_Tables_number     1

_symmetry_equiv_pos_as_xyz 'x,y,z'

loop_
_atom_site_label
_atom_site_type_symbol
_atom_site_fract_x
_atom_site_fract_y
_atom_site_fract_z
_atom_site_charge
C1        C1       0.93674  -0.00009   0.99109     0.0000
N1        N1       0.17020   0.99995   0.04219     0.0000
H1       H       0.91679   0.99976   0.81497     0.0000
H1       H       0.86333   0.14553   0.06061     0.0000
H1       H       0.86326   0.85442   0.06091     0.0000
H2       H       0.24692   0.13648   0.98019     0.0000
H2       H       0.24697   0.86336   0.98036     0.0000
H2       H       0.20146   0.00004   0.20867     0.0000
Pb       Pb      0.42765   0.50024   0.50346     0.0000
Br       Br      0.41580   0.50024  -0.02694     0.0000
Br       Br      0.41643  -0.00062   0.51997     0.0000
Br       Br     -0.02233   0.50004   0.46166     0.0000
