data_MAPbI_rot-67.5

_audit_creation_method RASPA-1.0
_audit_creation_date 2018-1-9
_audit_author_name 'Jose Manuel Vicent-Luna'

_cell_length_a    6.31
_cell_length_b    6.31
_cell_length_c    6.31
_cell_angle_alpha 90.0000
_cell_angle_beta  90.0000
_cell_angle_gamma 90.0000

_symmetry_cell_setting          triclinic
_symmetry_space_group_name_Hall 'P 1'
_symmetry_space_group_name_H-M  'P 1'
_symmetry_Int_Tables_number     1

_symmetry_equiv_pos_as_xyz 'x,y,z'

loop_
_atom_site_label
_atom_site_type_symbol
_atom_site_fract_x
_atom_site_fract_y
_atom_site_fract_z
_atom_site_charge
C1       C1      0.96922   0.99874   1.11218     0.7710
N1       N1      1.11138   1.00114   0.92556    -1.1000
H1       H       0.80374   0.99786   1.05748     0.0230
H1       H       0.99968   1.14120   1.20784     0.0230
H1       H       1.00186   0.85538   1.20578     0.0230
H2       H       1.08770   1.13560   0.83170     0.5400
H2       H       1.08968   0.86776   0.82974     0.5400
H2       H       1.27198   1.00202   0.96640     0.5400
Pb       Pb      0.48788   0.49992   1.49126     2.0300
I        I       0.43880   0.49994   0.98806    -1.1300
I        I       0.44714   0.99988   1.52642    -1.1300
I        I       0.97414   0.49990   1.45470    -1.1300
