data_MAPbI_6.3-CONTCAR

_audit_creation_method RASPA-1.0
_audit_creation_date 2018-1-9
_audit_author_name 'Jose Manuel Vicent-Luna'

_cell_length_a    6.3000
_cell_length_b    6.3000
_cell_length_c    6.3000
_cell_angle_alpha 90.0000
_cell_angle_beta  90.0000
_cell_angle_gamma 90.0000

_symmetry_cell_setting          triclinic
_symmetry_space_group_name_Hall 'P 1'
_symmetry_space_group_name_H-M  'P 1'
_symmetry_Int_Tables_number     1

_symmetry_equiv_pos_as_xyz 'x,y,z'

loop_
_atom_site_label
_atom_site_type_symbol
_atom_site_fract_x
_atom_site_fract_y
_atom_site_fract_z
_atom_site_charge
C1       C1      0.92608   0.00003   0.98621     0.7710
N1       N1      0.15316   0.99990   0.04621    -1.1000
H1       H       0.91313   0.99993   0.81219     0.0230
H1       H       0.85071   0.14327   0.05161     0.0230
H1       H       0.85051   0.85700   0.05178     0.0230
H2       H       0.23238   0.13389   0.98887     0.5400
H2       H       0.23222   0.86575   0.98898     0.5400
H2       H       0.17720   0.99995   0.21040     0.5400
Pb       Pb      0.48785   0.49990   0.49148     2.0300
I        I       0.43873   0.49995   0.98811    -1.1300
I        I       0.44696   0.99990   0.52658    -1.1300
I        I       0.97428   0.49989   0.45471    -1.1300
