data_MAPbI_6.2-CONTCAR

_audit_creation_method RASPA-1.0
_audit_creation_date 2018-1-9
_audit_author_name 'Jose Manuel Vicent-Luna'

_cell_length_a    6.2000
_cell_length_b    6.2000
_cell_length_c    6.2000
_cell_angle_alpha 90.0000
_cell_angle_beta  90.0000
_cell_angle_gamma 90.0000

_symmetry_cell_setting          triclinic
_symmetry_space_group_name_Hall 'P 1'
_symmetry_space_group_name_H-M  'P 1'
_symmetry_Int_Tables_number     1

_symmetry_equiv_pos_as_xyz 'x,y,z'

loop_
_atom_site_label
_atom_site_type_symbol
_atom_site_fract_x
_atom_site_fract_y
_atom_site_fract_z
_atom_site_charge
C1       C1      0.91945   0.00001   0.98073     0.7710
N1       N1      0.14799  -0.00008   0.04916    -1.1000
H1       H       0.91226   0.99989   0.80362     0.0230
H1       H       0.84068   0.14567   0.04438     0.0230
H1       H       0.84048   0.85457   0.04461     0.0230
H2       H       0.23028   0.13617   0.99334     0.5400
H2       H       0.23017   0.86356   0.99343     0.5400
H2       H       0.16664  -0.00003   0.21653     0.5400
Pb       Pb      0.50006   0.49981   0.49492     2.0300
I        I       0.45065   0.49988   0.99208    -1.1300
I        I       0.45559   0.99972   0.53083    -1.1300
I        I       0.98898   0.50017   0.45352    -1.1300
