data_MAPbI_6.7-CONTCAR

_audit_creation_method RASPA-1.0
_audit_creation_date 2018-1-9
_audit_author_name 'Jose Manuel Vicent-Luna'

_cell_length_a    6.7000
_cell_length_b    6.7000
_cell_length_c    6.7000
_cell_angle_alpha 90.0000
_cell_angle_beta  90.0000
_cell_angle_gamma 90.0000

_symmetry_cell_setting          triclinic
_symmetry_space_group_name_Hall 'P 1'
_symmetry_space_group_name_H-M  'P 1'
_symmetry_Int_Tables_number     1

_symmetry_equiv_pos_as_xyz 'x,y,z'

loop_
_atom_site_label
_atom_site_type_symbol
_atom_site_fract_x
_atom_site_fract_y
_atom_site_fract_z
_atom_site_charge
C1       C1      0.95877  -0.00037   0.00349     0.7710
N1       N1      0.17758  -0.00033   0.03613    -1.1000
H1       H       0.92944   0.99956   0.84214     0.0230
H1       H       0.89538   0.13425   0.07283     0.0230
H1       H       0.89543   0.86511   0.07294     0.0230
H2       H       0.24463   0.12579   0.97360     0.5400
H2       H       0.24444   0.87239   0.97563     0.5400
H2       H       0.21453   0.00123   0.18869     0.5400
Pb       Pb      0.38769   0.48226   0.50262     2.0300
I        I       0.39215   0.50073  -0.03813    -1.1300
I        I       0.39556   0.01717   0.51678    -1.1300
I        I      -0.05237   0.50156   0.45043    -1.1300
