data_MAPbBr_6.05-CONTCAR

_audit_creation_method RASPA-1.0
_audit_creation_date 2018-1-9
_audit_author_name 'Jose Manuel Vicent-Luna'

_cell_length_a    6.0500
_cell_length_b    6.0500
_cell_length_c    6.0500
_cell_angle_alpha 90.0000
_cell_angle_beta  90.0000
_cell_angle_gamma 90.0000

_symmetry_cell_setting          triclinic
_symmetry_space_group_name_Hall 'P 1'
_symmetry_space_group_name_H-M  'P 1'
_symmetry_Int_Tables_number     1

_symmetry_equiv_pos_as_xyz 'x,y,z'

loop_
_atom_site_label
_atom_site_type_symbol
_atom_site_fract_x
_atom_site_fract_y
_atom_site_fract_z
_atom_site_charge
C1        C1       0.92564   0.00007   0.98284     0.0000
N1        N1       0.16166  -0.00001   0.04736     0.0000
H1       H       0.91347   0.99997   0.80160     0.0000
H1       H       0.84670   0.14919   0.05027     0.0000
H1       H       0.84643   0.85122   0.05055     0.0000
H2       H       0.24395   0.14007   0.98871     0.0000
H2       H       0.24386   0.85988   0.98867     0.0000
H2       H       0.18496  -0.00001   0.21867     0.0000
Pb       Pb      0.48300   0.49984   0.49651     0.0000
Br       Br      0.43331   0.49964   0.98893     0.0000
Br       Br      0.43988  -0.00036   0.52240     0.0000
Br       Br      0.96037   0.49985   0.46063     0.0000
