data_MAPbI_6.32-CONTCAR

_audit_creation_method RASPA-1.0
_audit_creation_date 2018-1-9
_audit_author_name 'Jose Manuel Vicent-Luna'

_cell_length_a    6.3200
_cell_length_b    6.3200
_cell_length_c    6.3200
_cell_angle_alpha 90.0000
_cell_angle_beta  90.0000
_cell_angle_gamma 90.0000

_symmetry_cell_setting          triclinic
_symmetry_space_group_name_Hall 'P 1'
_symmetry_space_group_name_H-M  'P 1'
_symmetry_Int_Tables_number     1

_symmetry_equiv_pos_as_xyz 'x,y,z'

loop_
_atom_site_label
_atom_site_type_symbol
_atom_site_fract_x
_atom_site_fract_y
_atom_site_fract_z
_atom_site_charge
C1       C1      0.92636   0.00004   0.98635     0.7710
N1       N1      0.15293   0.99989   0.04619    -1.1000
H1       H       0.91339   0.99993   0.81285     0.0230
H1       H       0.85111   0.14277   0.05146     0.0230
H1       H       0.85090   0.85748   0.05163     0.0230
H2       H       0.23196   0.13347   0.98905     0.5400
H2       H       0.23179   0.86618   0.98916     0.5400
H2       H       0.17686   0.99995   0.20988     0.5400
Pb       Pb      0.48791   0.49990   0.49136     2.0300
I        I       0.43876   0.49995   0.98806    -1.1300
I        I       0.44708   0.99989   0.52644    -1.1300
I        I       0.97417   0.49990   0.45470    -1.1300
