data_MAPbI_6.5-CONTCAR

_audit_creation_method RASPA-1.0
_audit_creation_date 2018-1-9
_audit_author_name 'Jose Manuel Vicent-Luna'

_cell_length_a    6.5000
_cell_length_b    6.5000
_cell_length_c    6.5000
_cell_angle_alpha 90.0000
_cell_angle_beta  90.0000
_cell_angle_gamma 90.0000

_symmetry_cell_setting          triclinic
_symmetry_space_group_name_Hall 'P 1'
_symmetry_space_group_name_H-M  'P 1'
_symmetry_Int_Tables_number     1

_symmetry_equiv_pos_as_xyz 'x,y,z'

loop_
_atom_site_label
_atom_site_type_symbol
_atom_site_fract_x
_atom_site_fract_y
_atom_site_fract_z
_atom_site_charge
C1       C1      0.93799  -0.00001   0.99048     0.7710
N1       N1      0.16014  -0.00011   0.04215    -1.1000
H1       H       0.92128   0.99985   0.82205     0.0230
H1       H       0.86692   0.13884   0.05617     0.0230
H1       H       0.86677   0.86138   0.05639     0.0230
H2       H       0.23509   0.12981   0.98457     0.5400
H2       H       0.23493   0.86983   0.98472     0.5400
H2       H       0.18785  -0.00002   0.20088     0.5400
Pb       Pb      0.47664   0.50003   0.49501     2.0300
I        I       0.42470   0.49980  -0.01382    -1.1300
I        I       0.42667  -0.00008   0.51810    -1.1300
I        I      -0.05577   0.50003   0.46043    -1.1300
