data_MAPbBr_6.4-CONTCAR

_audit_creation_method RASPA-1.0
_audit_creation_date 2018-1-9
_audit_author_name 'Jose Manuel Vicent-Luna'

_cell_length_a    6.4000
_cell_length_b    6.4000
_cell_length_c    6.4000
_cell_angle_alpha 90.0000
_cell_angle_beta  90.0000
_cell_angle_gamma 90.0000

_symmetry_cell_setting          triclinic
_symmetry_space_group_name_Hall 'P 1'
_symmetry_space_group_name_H-M  'P 1'
_symmetry_Int_Tables_number     1

_symmetry_equiv_pos_as_xyz 'x,y,z'

loop_
_atom_site_label
_atom_site_type_symbol
_atom_site_fract_x
_atom_site_fract_y
_atom_site_fract_z
_atom_site_charge
C1        C1       0.95741   0.00046   0.00038     0.0000
N1        N1       0.18549   0.00230   0.03901     0.0000
H1       H       0.92989   0.00098   0.83097     0.0000
H1       H       0.88835   0.14040   0.07206     0.0000
H1       H       0.89070   0.85876   0.07071     0.0000
H2       H       0.25386   0.13808   0.97968     0.0000
H2       H       0.25694   0.87223   0.97135     0.0000
H2       H       0.22131  -0.00313   0.19941     0.0000
Pb       Pb      0.38531   0.52151   0.50643     0.0000
Br       Br      0.37172   0.50279  -0.04584     0.0000
Br       Br      0.38100  -0.02891   0.51961     0.0000
Br       Br     -0.03875   0.49389   0.45336     0.0000
