data_MAPbI_rot-180

_audit_creation_method RASPA-1.0
_audit_creation_date 2018-1-9
_audit_author_name 'Jose Manuel Vicent-Luna'

_cell_length_a    6.31
_cell_length_b    6.31
_cell_length_c    6.31
_cell_angle_alpha 90.0000
_cell_angle_beta  90.0000
_cell_angle_gamma 90.0000

_symmetry_cell_setting          triclinic
_symmetry_space_group_name_Hall 'P 1'
_symmetry_space_group_name_H-M  'P 1'
_symmetry_Int_Tables_number     1

_symmetry_equiv_pos_as_xyz 'x,y,z'

loop_
_atom_site_label
_atom_site_type_symbol
_atom_site_fract_x
_atom_site_fract_y
_atom_site_fract_z
_atom_site_charge
C1       C1      1.15758   0.99890   1.04784     0.7710
N1       N1      0.93076   1.00100   0.98794    -1.1000
H1       H       1.17038   0.99542   1.22160     0.0230
H1       H       1.23352   1.14274   0.98528     0.0230
H1       H       1.23234   0.85696   0.97968     0.0230
H2       H       0.85238   1.13412   1.04778     0.5400
H2       H       0.85126   0.86632   1.04260     0.5400
H2       H       0.90702   1.00426   0.82398     0.5400
Pb       Pb      0.48788   0.49992   1.49126     2.0300
I        I       0.43880   0.49994   0.98806    -1.1300
I        I       0.44714   0.99988   1.52642    -1.1300
I        I       0.97414   0.49990   1.45470    -1.1300
