data_cif

_audit_creation_method             'generated by GULP'

_symmetry_space_group_name_H-M     'P 1'
_symmetry_Int_Tables_number        1
_symmetry_cell_setting             triclinic

_cell_length_a                       11.2000
_cell_length_b                       11.2000
_cell_length_c                       11.2000
_cell_angle_alpha                   90.0000
_cell_angle_beta                    90.0000
_cell_angle_gamma                   90.0000

loop_
_atom_site_label
_atom_site_fract_x
_atom_site_fract_y
_atom_site_fract_z
_atom_site_occupancy
  C1          0.45394      0.49998      0.47687  1.0000
  C1          0.45394      0.49998      0.97687  1.0000
  C1          0.45394      0.99998      0.47687  1.0000
  C1          0.45394      0.99998      0.97687  1.0000
  C1          0.95394      0.49998      0.47687  1.0000
  C1          0.95394      0.49998      0.97687  1.0000
  C1          0.95394      0.99998      0.47687  1.0000
  C1          0.95394      0.99998      0.97687  1.0000
  N1          0.07074      0.49993      0.03697  1.0000
  N1          0.07074      0.49993      0.53697  1.0000
  N1          0.07074      0.99993      0.03697  1.0000
  N1          0.07074      0.99993      0.53697  1.0000
  N1          0.57074      0.49993      0.03697  1.0000
  N1          0.57074      0.49993      0.53697  1.0000
  N1          0.57074      0.99993      0.03697  1.0000
  N1          0.57074      0.99993      0.53697  1.0000
  H1          0.46858      0.49990      0.37993  1.0000
  H1          0.46858      0.49990      0.87993  1.0000
  H1          0.46858      0.99990      0.37993  1.0000
  H1          0.46858      0.99990      0.87993  1.0000
  H1          0.96858      0.49990      0.37993  1.0000
  H1          0.96858      0.49990      0.87993  1.0000
  H1          0.96858      0.99990      0.37993  1.0000
  H1          0.96858      0.99990      0.87993  1.0000
  H1          0.40433      0.08056      0.00301  1.0000
  H1          0.40433      0.08056      0.50301  1.0000
  H1          0.40433      0.58056      0.00301  1.0000
  H1          0.40433      0.58056      0.50301  1.0000
  H1          0.90433      0.08056      0.00301  1.0000
  H1          0.90433      0.08056      0.50301  1.0000
  H1          0.90433      0.58056      0.00301  1.0000
  H1          0.90433      0.58056      0.50301  1.0000
  H1          0.40426      0.41942      0.00306  1.0000
  H1          0.40426      0.41942      0.50306  1.0000
  H1          0.40426      0.91942      0.00306  1.0000
  H1          0.40426      0.91942      0.50306  1.0000
  H1          0.90426      0.41942      0.00306  1.0000
  H1          0.90426      0.41942      0.50306  1.0000
  H1          0.90426      0.91942      0.00306  1.0000
  H1          0.90426      0.91942      0.50306  1.0000
  H2          0.12082      0.07531      0.01394  1.0000
  H2          0.12082      0.07531      0.51394  1.0000
  H2          0.12082      0.57531      0.01394  1.0000
  H2          0.12082      0.57531      0.51394  1.0000
  H2          0.62082      0.07531      0.01394  1.0000
  H2          0.62082      0.07531      0.51394  1.0000
  H2          0.62082      0.57531      0.01394  1.0000
  H2          0.62082      0.57531      0.51394  1.0000
  H2          0.12077      0.42450      0.01400  1.0000
  H2          0.12077      0.42450      0.51400  1.0000
  H2          0.12077      0.92450      0.01400  1.0000
  H2          0.12077      0.92450      0.51400  1.0000
  H2          0.62077      0.42450      0.01400  1.0000
  H2          0.62077      0.42450      0.51400  1.0000
  H2          0.62077      0.92450      0.01400  1.0000
  H2          0.62077      0.92450      0.51400  1.0000
  H2          0.06479      0.49995      0.12947  1.0000
  H2          0.06479      0.49995      0.62947  1.0000
  H2          0.06479      0.99995      0.12947  1.0000
  H2          0.06479      0.99995      0.62947  1.0000
  H2          0.56479      0.49995      0.12947  1.0000
  H2          0.56479      0.49995      0.62947  1.0000
  H2          0.56479      0.99995      0.12947  1.0000
  H2          0.56479      0.99995      0.62947  1.0000
  Pb          0.26729      0.25007      0.24843  1.0000
  Pb          0.26729      0.25007      0.74843  1.0000
  Pb          0.26729      0.75007      0.24843  1.0000
  Pb          0.26729      0.75007      0.74843  1.0000
  Pb          0.76729      0.25007      0.24843  1.0000
  Pb          0.76729      0.25007      0.74843  1.0000
  Pb          0.76729      0.75007      0.24843  1.0000
  Pb          0.76729      0.75007      0.74843  1.0000
  Br          0.22767      0.25003      0.49663  1.0000
  Br          0.22767      0.25003      0.99663  1.0000
  Br          0.22767      0.75003      0.49663  1.0000
  Br          0.22767      0.75003      0.99663  1.0000
  Br          0.72767      0.25003      0.49663  1.0000
  Br          0.72767      0.25003      0.99663  1.0000
  Br          0.72767      0.75003      0.49663  1.0000
  Br          0.72767      0.75003      0.99663  1.0000
  Br          0.22601      0.00007      0.27917  1.0000
  Br          0.22601      0.00007      0.77917  1.0000
  Br          0.22601      0.50007      0.27917  1.0000
  Br          0.22601      0.50007      0.77917  1.0000
  Br          0.72601      0.00007      0.27917  1.0000
  Br          0.72601      0.00007      0.77917  1.0000
  Br          0.72601      0.50007      0.27917  1.0000
  Br          0.72601      0.50007      0.77917  1.0000
  Br          0.01241      0.24998      0.21708  1.0000
  Br          0.01241      0.24998      0.71708  1.0000
  Br          0.01241      0.74998      0.21708  1.0000
  Br          0.01241      0.74998      0.71708  1.0000
  Br          0.51241      0.24998      0.21708  1.0000
  Br          0.51241      0.24998      0.71708  1.0000
  Br          0.51241      0.74998      0.21708  1.0000
  Br          0.51241      0.74998      0.71708  1.0000
