data_MAPbBr_5.9-CONTCAR

_audit_creation_method RASPA-1.0
_audit_creation_date 2018-1-9
_audit_author_name 'Jose Manuel Vicent-Luna'

_cell_length_a    5.9000
_cell_length_b    5.9000
_cell_length_c    5.9000
_cell_angle_alpha 90.0000
_cell_angle_beta  90.0000
_cell_angle_gamma 90.0000

_symmetry_cell_setting          triclinic
_symmetry_space_group_name_Hall 'P 1'
_symmetry_space_group_name_H-M  'P 1'
_symmetry_Int_Tables_number     1

_symmetry_equiv_pos_as_xyz 'x,y,z'

loop_
_atom_site_label
_atom_site_type_symbol
_atom_site_fract_x
_atom_site_fract_y
_atom_site_fract_z
_atom_site_charge
C1        C1       0.91427  -0.00013   0.97968     0.0000
N1        N1       0.15555  -0.00030   0.04753     0.0000
H1       H       0.90360   0.99965   0.79373     0.0000
H1       H       0.83254   0.15290   0.04784     0.0000
H1       H       0.83226   0.84711   0.04816     0.0000
H2       H       0.24093   0.14281   0.98778     0.0000
H2       H       0.24071   0.85642   0.98789     0.0000
H2       H       0.17858   0.99970   0.22310     0.0000
Pb       Pb      0.49774   0.50004   0.49864     0.0000
Br       Br      0.44791   0.49998  -0.00658     0.0000
Br       Br      0.45164   0.00009   0.52574     0.0000
Br       Br     -0.01251   0.50107   0.46362     0.0000
