data_MAPbBr_6.3-CONTCAR

_audit_creation_method RASPA-1.0
_audit_creation_date 2018-1-9
_audit_author_name 'Jose Manuel Vicent-Luna'

_cell_length_a    6.3000
_cell_length_b    6.3000
_cell_length_c    6.3000
_cell_angle_alpha 90.0000
_cell_angle_beta  90.0000
_cell_angle_gamma 90.0000

_symmetry_cell_setting          triclinic
_symmetry_space_group_name_Hall 'P 1'
_symmetry_space_group_name_H-M  'P 1'
_symmetry_Int_Tables_number     1

_symmetry_equiv_pos_as_xyz 'x,y,z'

loop_
_atom_site_label
_atom_site_type_symbol
_atom_site_fract_x
_atom_site_fract_y
_atom_site_fract_z
_atom_site_charge
C1        C1       0.94860  -0.00024   0.99634     0.0000
N1        N1       0.17946   0.00005   0.04027     0.0000
H1       H       0.92356   0.99957   0.82368     0.0000
H1       H       0.87827   0.14277   0.06738     0.0000
H1       H       0.87863   0.85666   0.06760     0.0000
H2       H       0.25208   0.13567   0.97862     0.0000
H2       H       0.25270   0.86607   0.97577     0.0000
H2       H       0.21339   0.99792   0.20365     0.0000
Pb       Pb      0.40277   0.51944   0.50579     0.0000
Br       Br      0.39085   0.50052  -0.03465     0.0000
Br       Br      0.39422  -0.01887   0.52240     0.0000
Br       Br     -0.03129   0.49977   0.45028     0.0000
