data_MAPbI_5.8-CONTCAR

_audit_creation_method RASPA-1.0
_audit_creation_date 2018-1-9
_audit_author_name 'Jose Manuel Vicent-Luna'

_cell_length_a    5.8000
_cell_length_b    5.8000
_cell_length_c    5.8000
_cell_angle_alpha 90.0000
_cell_angle_beta  90.0000
_cell_angle_gamma 90.0000

_symmetry_cell_setting          triclinic
_symmetry_space_group_name_Hall 'P 1'
_symmetry_space_group_name_H-M  'P 1'
_symmetry_Int_Tables_number     1

_symmetry_equiv_pos_as_xyz 'x,y,z'

loop_
_atom_site_label
_atom_site_type_symbol
_atom_site_fract_x
_atom_site_fract_y
_atom_site_fract_z
_atom_site_charge
C1       C1      0.91677   0.00019   0.94318     0.7710
N1       N1      0.12488   0.00000   0.08802    -1.1000
H1       H       0.97014   0.00034   0.76138     0.0230
H1       H       0.81514   0.15602  -0.01966     0.0230
H1       H       0.81473   0.84459  -0.01976     0.0230
H2       H       0.22720   0.14547   0.05610     0.5400
H2       H       0.22693   0.85427   0.05637     0.5400
H2       H       0.08910   0.00050   0.26301     0.5400
Pb       Pb      0.54238   0.50108   0.47733     2.0300
I        I       0.45020   0.50025   0.97974    -1.1300
I        I       0.47516   0.00066   0.55181    -1.1300
I        I       0.03060   0.49595   0.45962    -1.1300
