data_MAPbI_6.0-CONTCAR

_audit_creation_method RASPA-1.0
_audit_creation_date 2018-1-9
_audit_author_name 'Jose Manuel Vicent-Luna'

_cell_length_a    6.0000
_cell_length_b    6.0000
_cell_length_c    6.0000
_cell_angle_alpha 90.0000
_cell_angle_beta  90.0000
_cell_angle_gamma 90.0000

_symmetry_cell_setting          triclinic
_symmetry_space_group_name_Hall 'P 1'
_symmetry_space_group_name_H-M  'P 1'
_symmetry_Int_Tables_number     1

_symmetry_equiv_pos_as_xyz 'x,y,z'

loop_
_atom_site_label
_atom_site_type_symbol
_atom_site_fract_x
_atom_site_fract_y
_atom_site_fract_z
_atom_site_charge
C1       C1      0.91548  -0.00012   0.96459     0.7710
N1       N1      0.13958  -0.00019   0.06581    -1.1000
H1       H       0.93291   0.99980   0.78221     0.0230
H1       H       0.82542   0.15020   0.01852     0.0230
H1       H       0.82527   0.84968   0.01864     0.0230
H2       H       0.23164   0.14039   0.01884     0.5400
H2       H       0.23154   0.85918   0.01889     0.5400
H2       H       0.13631  -0.00014   0.23927     0.5400
Pb       Pb      0.51692   0.50044   0.49237     2.0300
I        I       0.46174   0.50000   0.99076    -1.1300
I        I       0.46025   0.00035   0.54717    -1.1300
I        I       0.00617   0.49974   0.44007    -1.1300
