data_MAPbI_6.1-CONTCAR

_audit_creation_method RASPA-1.0
_audit_creation_date 2018-1-9
_audit_author_name 'Jose Manuel Vicent-Luna'

_cell_length_a    6.1000
_cell_length_b    6.1000
_cell_length_c    6.1000
_cell_angle_alpha 90.0000
_cell_angle_beta  90.0000
_cell_angle_gamma 90.0000

_symmetry_cell_setting          triclinic
_symmetry_space_group_name_Hall 'P 1'
_symmetry_space_group_name_H-M  'P 1'
_symmetry_Int_Tables_number     1

_symmetry_equiv_pos_as_xyz 'x,y,z'

loop_
_atom_site_label
_atom_site_type_symbol
_atom_site_fract_x
_atom_site_fract_y
_atom_site_fract_z
_atom_site_charge
C1       C1      0.91683  -0.00004   0.97305     0.7710
N1       N1      0.14366   0.99993   0.05824    -1.1000
H1       H       0.92236   0.99988   0.79282     0.0230
H1       H       0.83211   0.14806   0.03173     0.0230
H1       H       0.83197   0.85201   0.03186     0.0230
H2       H       0.23089   0.13831   0.00650     0.5400
H2       H       0.23086   0.86149   0.00666     0.5400
H2       H       0.15166   0.00004   0.22892     0.5400
Pb       Pb      0.50897   0.49984   0.49246     2.0300
I        I       0.45480   0.49993   0.99047    -1.1300
I        I       0.46052  -0.00016   0.53972    -1.1300
I        I       0.99860   0.50005   0.44471    -1.1300
