data_MAPbI_6.25-CONTCAR

_audit_creation_method RASPA-1.0
_audit_creation_date 2018-1-9
_audit_author_name 'Jose Manuel Vicent-Luna'

_cell_length_a    6.2500
_cell_length_b    6.2500
_cell_length_c    6.2500
_cell_angle_alpha 90.0000
_cell_angle_beta  90.0000
_cell_angle_gamma 90.0000

_symmetry_cell_setting          triclinic
_symmetry_space_group_name_Hall 'P 1'
_symmetry_space_group_name_H-M  'P 1'
_symmetry_Int_Tables_number     1

_symmetry_equiv_pos_as_xyz 'x,y,z'

loop_
_atom_site_label
_atom_site_type_symbol
_atom_site_fract_x
_atom_site_fract_y
_atom_site_fract_z
_atom_site_charge
C1       C1      0.92395   0.00009   0.98534     0.7710
N1       N1      0.15252   0.99998   0.04685    -1.1000
H1       H       0.91158   0.00002   0.80986     0.0230
H1       H       0.84773   0.14453   0.05090     0.0230
H1       H       0.84750   0.85589   0.05106     0.0230
H2       H       0.23272   0.13499   0.98930     0.5400
H2       H       0.23255   0.86481   0.98939     0.5400
H2       H       0.17562   0.00001   0.21243     0.5400
Pb       Pb      0.48629   0.49935   0.49063     2.0300
I        I       0.44453   0.49993   0.98809    -1.1300
I        I       0.45153   0.99967   0.53023    -1.1300
I        I       0.97671   0.50007   0.45306    -1.1300
