data_MAPbBr_6.0-CONTCAR

_audit_creation_method RASPA-1.0
_audit_creation_date 2018-1-9
_audit_author_name 'Jose Manuel Vicent-Luna'

_cell_length_a    6.0000
_cell_length_b    6.0000
_cell_length_c    6.0000
_cell_angle_alpha 90.0000
_cell_angle_beta  90.0000
_cell_angle_gamma 90.0000

_symmetry_cell_setting          triclinic
_symmetry_space_group_name_Hall 'P 1'
_symmetry_space_group_name_H-M  'P 1'
_symmetry_Int_Tables_number     1

_symmetry_equiv_pos_as_xyz 'x,y,z'

loop_
_atom_site_label
_atom_site_type_symbol
_atom_site_fract_x
_atom_site_fract_y
_atom_site_fract_z
_atom_site_charge
C1        C1       0.92121  -0.00036   0.98308     0.0000
N1        N1       0.15975   0.99964   0.04612     0.0000
H1       H       0.90779   0.99943   0.80039     0.0000
H1       H       0.84217   0.15014   0.05153     0.0000
H1       H       0.84207   0.84936   0.05189     0.0000
H2       H       0.24234   0.14058   0.98599     0.0000
H2       H       0.24227   0.85853   0.98620     0.0000
H2       H       0.18505   0.99975   0.21859     0.0000
Pb       Pb      0.48555   0.50022   0.49658     0.0000
Br       Br      0.43844   0.50007  -0.00788     0.0000
Br       Br      0.44464   0.00118   0.52269     0.0000
Br       Br     -0.02806   0.50078   0.46196     0.0000
