data_MAPbBr_5.93-CONTCAR

_audit_creation_method RASPA-1.0
_audit_creation_date 2018-1-9
_audit_author_name 'Jose Manuel Vicent-Luna'

_cell_length_a    5.9300
_cell_length_b    5.9300
_cell_length_c    5.9300
_cell_angle_alpha 90.0000
_cell_angle_beta  90.0000
_cell_angle_gamma 90.0000

_symmetry_cell_setting          triclinic
_symmetry_space_group_name_Hall 'P 1'
_symmetry_space_group_name_H-M  'P 1'
_symmetry_Int_Tables_number     1

_symmetry_equiv_pos_as_xyz 'x,y,z'

loop_
_atom_site_label
_atom_site_type_symbol
_atom_site_fract_x
_atom_site_fract_y
_atom_site_fract_z
_atom_site_charge
C1        C1       0.91532   0.99991   0.98015     0.0000
N1        N1       0.15516   0.99975   0.04859     0.0000
H1       H       0.90503   0.99972   0.79514     0.0000
H1       H       0.83382   0.15212   0.04776     0.0000
H1       H       0.83353   0.84804   0.04811     0.0000
H2       H       0.24006   0.14219   0.98927     0.0000
H2       H       0.23986   0.85717   0.98933     0.0000
H2       H       0.17738   0.99977   0.22328     0.0000
Pb       Pb      0.49758   0.50007   0.49818     0.0000
Br       Br      0.44677   0.49964   0.99223     0.0000
Br       Br      0.45206   0.00034   0.52604     0.0000
Br       Br      0.98666   0.50063   0.45906     0.0000
