data_MAPbI_6.4-CONTCAR

_audit_creation_method RASPA-1.0
_audit_creation_date 2018-1-9
_audit_author_name 'Jose Manuel Vicent-Luna'

_cell_length_a    6.4000
_cell_length_b    6.4000
_cell_length_c    6.4000
_cell_angle_alpha 90.0000
_cell_angle_beta  90.0000
_cell_angle_gamma 90.0000

_symmetry_cell_setting          triclinic
_symmetry_space_group_name_Hall 'P 1'
_symmetry_space_group_name_H-M  'P 1'
_symmetry_Int_Tables_number     1

_symmetry_equiv_pos_as_xyz 'x,y,z'

loop_
_atom_site_label
_atom_site_type_symbol
_atom_site_fract_x
_atom_site_fract_y
_atom_site_fract_z
_atom_site_charge
C1       C1      0.93179   0.99991   0.98810     0.7710
N1       N1      0.15651   0.99966   0.04379    -1.1000
H1       H       0.91658   0.99979   0.81703     0.0230
H1       H       0.85893   0.14090   0.05396     0.0230
H1       H       0.85856   0.85925   0.05421     0.0230
H2       H       0.23363   0.13171   0.98646     0.5400
H2       H       0.23333   0.86740   0.98649     0.5400
H2       H       0.18223   0.99963   0.20542     0.5400
Pb       Pb      0.48137   0.50005   0.49319     2.0300
I        I       0.43239   0.49976   0.98842    -1.1300
I        I       0.43791   0.00010   0.52046    -1.1300
I        I       0.96000   0.50122   0.45960    -1.1300
