data_MAPbBr_5.7-CONTCAR

_audit_creation_method RASPA-1.0
_audit_creation_date 2018-1-9
_audit_author_name 'Jose Manuel Vicent-Luna'

_cell_length_a    5.7000
_cell_length_b    5.7000
_cell_length_c    5.7000
_cell_angle_alpha 90.0000
_cell_angle_beta  90.0000
_cell_angle_gamma 90.0000

_symmetry_cell_setting          triclinic
_symmetry_space_group_name_Hall 'P 1'
_symmetry_space_group_name_H-M  'P 1'
_symmetry_Int_Tables_number     1

_symmetry_equiv_pos_as_xyz 'x,y,z'

loop_
_atom_site_label
_atom_site_type_symbol
_atom_site_fract_x
_atom_site_fract_y
_atom_site_fract_z
_atom_site_charge
C1        C1       0.90320   0.00005   0.97630     0.0000
N1        N1       0.14880   0.99972   0.05660     0.0000
H1       H       0.90002   0.99998   0.78357     0.0000
H1       H       0.81558   0.15853   0.04266     0.0000
H1       H       0.81512   0.84188   0.04280     0.0000
H2       H       0.23962   0.14757   0.99733     0.0000
H2       H       0.23921   0.85154   0.99752     0.0000
H2       H       0.16550   0.99983   0.23886     0.0000
Pb       Pb      0.52691   0.50021   0.49171     0.0000
Br       Br      0.45671   0.49994   0.98825     0.0000
Br       Br      0.45366   0.00019   0.54287     0.0000
Br       Br      0.01888   0.49990   0.43865     0.0000
