data_MAPbBr_5.88-CONTCAR

_audit_creation_method RASPA-1.0
_audit_creation_date 2018-1-9
_audit_author_name 'Jose Manuel Vicent-Luna'

_cell_length_a    5.8800
_cell_length_b    5.8800
_cell_length_c    5.8800
_cell_angle_alpha 90.0000
_cell_angle_beta  90.0000
_cell_angle_gamma 90.0000

_symmetry_cell_setting          triclinic
_symmetry_space_group_name_Hall 'P 1'
_symmetry_space_group_name_H-M  'P 1'
_symmetry_Int_Tables_number     1

_symmetry_equiv_pos_as_xyz 'x,y,z'

loop_
_atom_site_label
_atom_site_type_symbol
_atom_site_fract_x
_atom_site_fract_y
_atom_site_fract_z
_atom_site_charge
C1        C1       0.91388   0.00000   0.97978     0.0000
N1        N1       0.15568   0.99974   0.04882     0.0000
H1       H       0.90328   0.99981   0.79313     0.0000
H1       H       0.83152   0.15358   0.04783     0.0000
H1       H       0.83118   0.84677   0.04814     0.0000
H2       H       0.24171   0.14327   0.98916     0.0000
H2       H       0.24124   0.85584   0.98922     0.0000
H2       H       0.17820   0.99969   0.22505     0.0000
Pb       Pb      0.49651   0.50007   0.49667     0.0000
Br       Br      0.44842   0.50004   0.99260     0.0000
Br       Br      0.45328   0.00041   0.52755     0.0000
Br       Br      0.98832   0.50012   0.45919     0.0000
