data_MAPbBr_6.1-CONTCAR

_audit_creation_method RASPA-1.0
_audit_creation_date 2018-1-9
_audit_author_name 'Jose Manuel Vicent-Luna'

_cell_length_a    6.1000
_cell_length_b    6.1000
_cell_length_c    6.1000
_cell_angle_alpha 90.0000
_cell_angle_beta  90.0000
_cell_angle_gamma 90.0000

_symmetry_cell_setting          triclinic
_symmetry_space_group_name_Hall 'P 1'
_symmetry_space_group_name_H-M  'P 1'
_symmetry_Int_Tables_number     1

_symmetry_equiv_pos_as_xyz 'x,y,z'

loop_
_atom_site_label
_atom_site_type_symbol
_atom_site_fract_x
_atom_site_fract_y
_atom_site_fract_z
_atom_site_charge
C1        C1       0.92953  -0.00004   0.98653     0.0000
N1        N1       0.16541   0.99985   0.04415     0.0000
H1       H       0.91289   0.99980   0.80707     0.0000
H1       H       0.85303   0.14784   0.05542     0.0000
H1       H       0.85286   0.85229   0.05569     0.0000
H2       H       0.24513   0.13867   0.98346     0.0000
H2       H       0.24499   0.86088   0.98363     0.0000
H2       H       0.19369   0.99994   0.21357     0.0000
Pb       Pb      0.47919   0.50003   0.49644     0.0000
Br       Br      0.42400   0.49982  -0.01277     0.0000
Br       Br      0.43750  -0.00003   0.51879     0.0000
Br       Br     -0.05501   0.50029   0.46515     0.0000
