data_MAPbBr_5.6-CONTCAR

_audit_creation_method RASPA-1.0
_audit_creation_date 2018-1-9
_audit_author_name 'Jose Manuel Vicent-Luna'

_cell_length_a    5.6000
_cell_length_b    5.6000
_cell_length_c    5.6000
_cell_angle_alpha 90.0000
_cell_angle_beta  90.0000
_cell_angle_gamma 90.0000

_symmetry_cell_setting          triclinic
_symmetry_space_group_name_Hall 'P 1'
_symmetry_space_group_name_H-M  'P 1'
_symmetry_Int_Tables_number     1

_symmetry_equiv_pos_as_xyz 'x,y,z'

loop_
_atom_site_label
_atom_site_type_symbol
_atom_site_fract_x
_atom_site_fract_y
_atom_site_fract_z
_atom_site_charge
C1        C1       0.90787  -0.00005   0.95374     0.0000
N1        N1       0.14148  -0.00015   0.07393     0.0000
H1       H       0.93716   0.99979   0.75987     0.0000
H1       H       0.80866   0.16112   0.00602     0.0000
H1       H       0.80852   0.83884   0.00612     0.0000
H2       H       0.24164   0.15061   0.02788     0.0000
H2       H       0.24154   0.84900   0.02800     0.0000
H2       H       0.12958  -0.00010   0.25894     0.0000
Pb       Pb      0.53459   0.50014   0.49686     0.0000
Br       Br      0.45534   0.50006   0.99326     0.0000
Br       Br      0.45202   0.00014   0.55834     0.0000
Br       Br      0.02481   0.49996   0.43417     0.0000
