data_MAPbBr_5.95-CONTCAR

_audit_creation_method RASPA-1.0
_audit_creation_date 2018-1-9
_audit_author_name 'Jose Manuel Vicent-Luna'

_cell_length_a    5.9500
_cell_length_b    5.9500
_cell_length_c    5.9500
_cell_angle_alpha 90.0000
_cell_angle_beta  90.0000
_cell_angle_gamma 90.0000

_symmetry_cell_setting          triclinic
_symmetry_space_group_name_Hall 'P 1'
_symmetry_space_group_name_H-M  'P 1'
_symmetry_Int_Tables_number     1

_symmetry_equiv_pos_as_xyz 'x,y,z'

loop_
_atom_site_label
_atom_site_type_symbol
_atom_site_fract_x
_atom_site_fract_y
_atom_site_fract_z
_atom_site_charge
C1        C1       0.91798   0.99993   0.98109     0.0000
N1        N1       0.15721   0.99956   0.04878     0.0000
H1       H       0.90762   0.99981   0.79673     0.0000
H1       H       0.83715   0.15174   0.04862     0.0000
H1       H       0.83656   0.84865   0.04897     0.0000
H2       H       0.24185   0.14151   0.98956     0.0000
H2       H       0.24138   0.85739   0.98953     0.0000
H2       H       0.17975   0.99957   0.22287     0.0000
Pb       Pb      0.49188   0.50067   0.49545     0.0000
Br       Br      0.44174   0.49823   0.99157     0.0000
Br       Br      0.44946   0.00071   0.52705     0.0000
Br       Br      0.98065   0.50158   0.45694     0.0000
