data_MAPbI_5.9-CONTCAR

_audit_creation_method RASPA-1.0
_audit_creation_date 2018-1-9
_audit_author_name 'Jose Manuel Vicent-Luna'

_cell_length_a    5.9000
_cell_length_b    5.9000
_cell_length_c    5.9000
_cell_angle_alpha 90.0000
_cell_angle_beta  90.0000
_cell_angle_gamma 90.0000

_symmetry_cell_setting          triclinic
_symmetry_space_group_name_Hall 'P 1'
_symmetry_space_group_name_H-M  'P 1'
_symmetry_Int_Tables_number     1

_symmetry_equiv_pos_as_xyz 'x,y,z'

loop_
_atom_site_label
_atom_site_type_symbol
_atom_site_fract_x
_atom_site_fract_y
_atom_site_fract_z
_atom_site_charge
C1       C1      0.91742  -0.00021   0.95012     0.7710
N1       N1      0.13346  -0.00005   0.07559    -1.1000
H1       H       0.95458   0.99968   0.76767     0.0230
H1       H       0.82055   0.15271  -0.00516     0.0230
H1       H       0.82073   0.84677  -0.00496     0.0230
H2       H       0.23115   0.14304   0.03667     0.5400
H2       H       0.23112   0.85671   0.03699     0.5400
H2       H       0.11244   0.00014   0.25030     0.5400
Pb       Pb      0.52583   0.50020   0.49675     2.0300
I        I       0.45997   0.50002   0.99514    -1.1300
I        I       0.46176   0.00025   0.55696    -1.1300
I        I       0.01423   0.50008   0.44107    -1.1300
