data_MAPbBr_5.8-CONTCAR

_audit_creation_method RASPA-1.0
_audit_creation_date 2018-1-9
_audit_author_name 'Jose Manuel Vicent-Luna'

_cell_length_a    5.8000
_cell_length_b    5.8000
_cell_length_c    5.8000
_cell_angle_alpha 90.0000
_cell_angle_beta  90.0000
_cell_angle_gamma 90.0000

_symmetry_cell_setting          triclinic
_symmetry_space_group_name_Hall 'P 1'
_symmetry_space_group_name_H-M  'P 1'
_symmetry_Int_Tables_number     1

_symmetry_equiv_pos_as_xyz 'x,y,z'

loop_
_atom_site_label
_atom_site_type_symbol
_atom_site_fract_x
_atom_site_fract_y
_atom_site_fract_z
_atom_site_charge
C1        C1       0.91053   0.00152   0.97710     0.0000
N1        N1       0.15241   0.00063   0.05583     0.0000
H1       H       0.90735   0.00150   0.78772     0.0000
H1       H       0.82515   0.15739   0.04294     0.0000
H1       H       0.82401   0.84630   0.04285     0.0000
H2       H       0.24160   0.14623   0.99821     0.0000
H2       H       0.24095   0.85493   0.99765     0.0000
H2       H       0.16869   0.00023   0.23489     0.0000
Pb       Pb      0.50775   0.49623   0.49194     0.0000
Br       Br      0.45116   0.50007  -0.01161     0.0000
Br       Br      0.45412  -0.00424   0.53865     0.0000
Br       Br     -0.00052   0.49856   0.44096     0.0000
