data_MAPbI_rot-135

_audit_creation_method RASPA-1.0
_audit_creation_date 2018-1-9
_audit_author_name 'Jose Manuel Vicent-Luna'

_cell_length_a    6.31
_cell_length_b    6.31
_cell_length_c    6.31
_cell_angle_alpha 90.0000
_cell_angle_beta  90.0000
_cell_angle_gamma 90.0000

_symmetry_cell_setting          triclinic
_symmetry_space_group_name_Hall 'P 1'
_symmetry_space_group_name_H-M  'P 1'
_symmetry_Int_Tables_number     1

_symmetry_equiv_pos_as_xyz 'x,y,z'

loop_
_atom_site_label
_atom_site_type_symbol
_atom_site_fract_x
_atom_site_fract_y
_atom_site_fract_z
_atom_site_charge
C1       C1      1.10196   0.99834   1.12062     0.7710
N1       N1      0.98392   1.00152   0.91788    -1.1000
H1       H       0.98810   0.99556   1.25254     0.0230
H1       H       1.20094   1.14144   1.13024     0.0230
H1       H       1.20194   0.85566   1.12514     0.0230
H2       H       0.88718   1.13540   0.90492     0.5400
H2       H       0.88808   0.86758   0.90018     0.5400
H2       H       1.08310   1.00420   0.78516     0.5400
Pb       Pb      0.48788   0.49992   1.49126     2.0300
I        I       0.43880   0.49994   0.98806    -1.1300
I        I       0.44714   0.99988   1.52642    -1.1300
I        I       0.97414   0.49990   1.45470    -1.1300
