data_MAPbBr_6.5-CONTCAR

_audit_creation_method RASPA-1.0
_audit_creation_date 2018-1-9
_audit_author_name 'Jose Manuel Vicent-Luna'

_cell_length_a    6.5000
_cell_length_b    6.5000
_cell_length_c    6.5000
_cell_angle_alpha 90.0000
_cell_angle_beta  90.0000
_cell_angle_gamma 90.0000

_symmetry_cell_setting          triclinic
_symmetry_space_group_name_Hall 'P 1'
_symmetry_space_group_name_H-M  'P 1'
_symmetry_Int_Tables_number     1

_symmetry_equiv_pos_as_xyz 'x,y,z'

loop_
_atom_site_label
_atom_site_type_symbol
_atom_site_fract_x
_atom_site_fract_y
_atom_site_fract_z
_atom_site_charge
C1        C1       0.96627  -0.00130   0.01091     0.0000
N1        N1       0.19256   0.00105   0.03807     0.0000
H1       H       0.93127   0.99871   0.84555     0.0000
H1       H       0.90178   0.13646   0.08479     0.0000
H1       H       0.90511   0.85888   0.08394     0.0000
H2       H       0.25647   0.13526   0.97707     0.0000
H2       H       0.25943   0.87321   0.96749     0.0000
H2       H       0.23376   0.99458   0.19489     0.0000
Pb       Pb      0.36581   0.52661   0.50305     0.0000
Br       Br      0.34888   0.50280  -0.06062     0.0000
Br       Br      0.36929  -0.03422   0.51649     0.0000
Br       Br     -0.04741   0.50729   0.43550     0.0000
