data_MAPbI_6.28-CONTCAR

_audit_creation_method RASPA-1.0
_audit_creation_date 2018-1-9
_audit_author_name 'Jose Manuel Vicent-Luna'

_cell_length_a    6.2800
_cell_length_b    6.2800
_cell_length_c    6.2800
_cell_angle_alpha 90.0000
_cell_angle_beta  90.0000
_cell_angle_gamma 90.0000

_symmetry_cell_setting          triclinic
_symmetry_space_group_name_Hall 'P 1'
_symmetry_space_group_name_H-M  'P 1'
_symmetry_Int_Tables_number     1

_symmetry_equiv_pos_as_xyz 'x,y,z'

loop_
_atom_site_label
_atom_site_type_symbol
_atom_site_fract_x
_atom_site_fract_y
_atom_site_fract_z
_atom_site_charge
C1       C1      0.92569   0.00003   0.98612     0.7710
N1       N1      0.15347   0.99991   0.04630    -1.1000
H1       H       0.91305   0.99993   0.81151     0.0230
H1       H       0.85033   0.14383   0.05186     0.0230
H1       H       0.85012   0.85644   0.05203     0.0230
H2       H       0.23272   0.13447   0.98863     0.5400
H2       H       0.23256   0.86517   0.98875     0.5400
H2       H       0.17722   0.99995   0.21111     0.5400
Pb       Pb      0.48776   0.49987   0.49141     2.0300
I        I       0.43885   0.49994   0.98812    -1.1300
I        I       0.44711   0.99990   0.52664    -1.1300
I        I       0.97434   0.49989   0.45466    -1.1300
