data_MAPbI_6.6-CONTCAR

_audit_creation_method RASPA-1.0
_audit_creation_date 2018-1-9
_audit_author_name 'Jose Manuel Vicent-Luna'

_cell_length_a    6.6000
_cell_length_b    6.6000
_cell_length_c    6.6000
_cell_angle_alpha 90.0000
_cell_angle_beta  90.0000
_cell_angle_gamma 90.0000

_symmetry_cell_setting          triclinic
_symmetry_space_group_name_Hall 'P 1'
_symmetry_space_group_name_H-M  'P 1'
_symmetry_Int_Tables_number     1

_symmetry_equiv_pos_as_xyz 'x,y,z'

loop_
_atom_site_label
_atom_site_type_symbol
_atom_site_fract_x
_atom_site_fract_y
_atom_site_fract_z
_atom_site_charge
C1       C1      0.94862  -0.00039   0.99686     0.7710
N1       N1      0.16908  -0.00027   0.04007    -1.1000
H1       H       0.92631   0.99936   0.83178     0.0230
H1       H       0.88115   0.13627   0.06392     0.0230
H1       H       0.88127   0.86300   0.06429     0.0230
H2       H       0.24004   0.12796   0.98023     0.5400
H2       H       0.24011   0.87129   0.98073     0.5400
H2       H       0.20161   0.00005   0.19591     0.5400
Pb       Pb      0.41225   0.49966   0.49988     2.0300
I        I       0.40840   0.50006  -0.02771    -1.1300
I        I       0.41587   0.00114   0.51713    -1.1300
I        I      -0.04148   0.50122   0.45406    -1.1300
